[General]
network = DemoNet
sim-time-limit = 30s
output-vector-file = results/${configname}-${runnumber}.vec
output-scalar-file = results/${configname}-${runnumber}.sca
**.vector-recording = true
